Circuit: * C:\Users\Adojang\Desktop\E344\LTSpice\Asssignment 2\Draft2.asc

Direct Newton iteration for .op point succeeded.

Date: Fri Sep 25 09:43:32 2020
Total elapsed time: 0.049 seconds.

tnom = 27
temp = 27
method = trap
totiter = 26
traniter = 0
tranpoints = 0
accept = 0
rejected = 0
matrix size = 31
fillins = 53
solver = Normal
Matrix Compiler1:     247 opcodes
Matrix Compiler2: 3.45 KB object code size
