Circuit: * C:\Users\Adojang\Desktop\E344\LTSpice\Asssignment 2\E344_Ass2_template.asc

Early termination of direct N-R iteration.
Direct Newton iteration failed to find .op point.  (Use ".option noopiter" to skip.)
Starting Gmin stepping
Gmin = 10
vernier = 0.5
vernier = 0.25
vernier = 0.125
Gmin = 5.5165
vernier = 0.0625
vernier = 0.03125
vernier = 0.015625
vernier = 0.0078125
Gmin = 5.49501
vernier = 0.00390625
vernier = 0.00195313
vernier = 0.000976563
vernier = 0.000488281
Gmin = 5.50104
Gmin = 0
Gmin stepping failed

Starting source stepping with srcstepmethod=0
Source Step = 3.0303%
Source Step = 33.3333%
Source Step = 46.9697%
Source Step = 54.5455%
Source Step = 62.1212%
Source Step = 69.697%
Source Step = 77.2727%
vernier = 0.375
Source Step = 86.7424%
Source Step = 98.1061%
Source stepping succeeded in finding the operating point.

Heightened Def Con from 0.4895 to 0.4895
Heightened Def Con from 0.489762 to 0.489762
Heightened Def Con from 0.885035 to 0.885035
Heightened Def Con from 1.28466 to 1.28466
Heightened Def Con from 1.6775 to 1.6775
Heightened Def Con from 1.67776 to 1.67776
Heightened Def Con from 2.08723 to 2.08723
Heightened Def Con from 2.48168 to 2.48168
Heightened Def Con from 4.48618 to 4.48618
Heightened Def Con from 4.8795 to 4.8795
Heightened Def Con from 5.2807 to 5.2807
Heightened Def Con from 6.08283 to 6.08283
Heightened Def Con from 6.48283 to 6.48283
Heightened Def Con from 7.68725 to 7.68725
Heightened Def Con from 8.0865 to 8.0865
Heightened Def Con from 8.08676 to 8.08676
Heightened Def Con from 8.48215 to 8.48215
Heightened Def Con from 9.2855 to 9.2855
Heightened Def Con from 9.28576 to 9.28576
Heightened Def Con from 10.0762 to 10.0762
Heightened Def Con from 10.4828 to 10.4828
Heightened Def Con from 10.8865 to 10.8865
Heightened Def Con from 12.0775 to 12.0775
Heightened Def Con from 12.8809 to 12.8809
Heightened Def Con from 13.285 to 13.285
Heightened Def Con from 13.6825 to 13.6825
Heightened Def Con from 14.0835 to 14.0835
Heightened Def Con from 14.8795 to 14.8795
Heightened Def Con from 15.2832 to 15.2832
Heightened Def Con from 16.0829 to 16.0829
Heightened Def Con from 16.4797 to 16.4797
Heightened Def Con from 16.8797 to 16.8797
Heightened Def Con from 17.6871 to 17.6871
Heightened Def Con from 18.0775 to 18.0775
Heightened Def Con from 18.4775 to 18.4775
Heightened Def Con from 18.8894 to 18.8894
Heightened Def Con from 19.2871 to 19.2871
Heightened Def Con from 19.6791 to 19.6791
Heightened Def Con from 19.6791 to 19.6791
Heightened Def Con from 20.0872 to 20.0872
Heightened Def Con from 20.8835 to 20.8835
Heightened Def Con from 22.4855 to 22.4855
Heightened Def Con from 23.2841 to 23.2841
Heightened Def Con from 23.6809 to 23.6809
Heightened Def Con from 24.0847 to 24.0847
Heightened Def Con from 24.4855 to 24.4855
Heightened Def Con from 25.2825 to 25.2825
Heightened Def Con from 25.2828 to 25.2828
Heightened Def Con from 25.6825 to 25.6825
Heightened Def Con from 26.0855 to 26.0855
Heightened Def Con from 26.0858 to 26.0858
Heightened Def Con from 27.2785 to 27.2785
Heightened Def Con from 27.6825 to 27.6825
Heightened Def Con from 28.0895 to 28.0895
Heightened Def Con from 28.4801 to 28.4801
Heightened Def Con from 28.4801 to 28.4801
Heightened Def Con from 28.8875 to 28.8875
Heightened Def Con from 29.2895 to 29.2895

Date: Fri Sep 25 16:35:14 2020
Total elapsed time: 6.666 seconds.

tnom = 27
temp = 27
method = modified trap
totiter = 196853
traniter = 194543
tranpoints = 73686
accept = 67463
rejected = 6281
matrix size = 95
fillins = 520
solver = Normal
Thread vector: 19.8/12.1[2] 5.9/4.1[2] 4.3/6.8[1] 1.6/2.0[1]  2592/500
Matrix Compiler1: 61.43 KB object code size  9.2/6.7/[2.4]
Matrix Compiler2: 17.18 KB object code size  4.6/3.7/[1.2]

