Circuit: * C:\Users\Adojang\Desktop\E344\LTSpice\Asssignment 2\testing.asc

WARNING: Less than two connections to node N003.  This node is used by A1.
WARNING: Less than two connections to node N002.  This node is used by A1.
WARNING: Less than two connections to node HIGH.  This node is used by V1.
Direct Newton iteration for .op point succeeded.

Date: Fri Aug 28 13:34:22 2020
Total elapsed time: 0.060 seconds.

tnom = 27
temp = 27
method = modified trap
totiter = 5107
traniter = 5102
tranpoints = 2552
accept = 2227
rejected = 325
matrix size = 6
fillins = 0
solver = Normal
Matrix Compiler1:       8 opcodes  0.1/[0.0]/0.0
Matrix Compiler2: 320 bytes object code size  0.1/0.0/[0.0]

