Circuit: * C:\Users\Adojang\Desktop\E344\LTSpice\E344_Assessment1.asc

Questionable use of curly braces in "b§e_abmgate yint 0 v={if(v(a)>{{vthresh}}&v(b)>{{vthresh}},{{vdd}},{{vss}})}"
    Error: undefined symbol in: "if([v](a)>((vthresh))&v(b)>((vthresh)),((vdd)),((vss)))"
Questionable use of curly braces in "b§e_abmgate yint 0 v={if(v(a)>{{vthresh}}|v(b)>{{vthresh}}|v(c)>{{vthresh}},{{vdd}},{{vss}})}"
    Error: undefined symbol in: "if([v](a)>((vthresh))|v(b)>((vthresh))|v(c)>((vthresh)),((vdd)),((vss)))"
Questionable use of curly braces in "b§e_abmgate yint 0 v={if(v(a)>{{vthresh}},{{vdd}},{{vss}})}"
    Error: undefined symbol in: "if([v](a)>((vthresh)),((vdd)),((vss)))"
WARNING: Less than two connections to node NC_01.  This node is used by R1.
Direct Newton iteration for .op point succeeded.
Ignoring empty pin current: Ix(u1:fb)
Ignoring empty pin current: Ix(u1:fb)
Heightened Def Con from 0.00586505 to 0.00586505

Date: Fri Aug 07 11:47:33 2020
Total elapsed time: 37.809 seconds.

tnom = 27
temp = 27
method = modified trap
totiter = 1813250
traniter = 1813203
tranpoints = 573771
accept = 422643
rejected = 151129
matrix size = 138
fillins = 104
solver = Normal
Thread vector: 16.7/13.1[2] 6.6/5.0[2] 9.2/5.0[2] 1.7/1.8[1]  2592/500
Matrix Compiler1: 12.15 KB object code size  3.4/1.9/[1.1]
Matrix Compiler2: 11.44 KB object code size  1.5/2.6/[0.7]

