Circuit: * C:\Users\Adojang\Desktop\E344\LTSpice\E344_Assessment1.asc

Questionable use of curly braces in "b§e_abmgate yint 0 v={if(v(a)>{{vthresh}}&v(b)>{{vthresh}},{{vdd}},{{vss}})}"
    Error: undefined symbol in: "if([v](a)>((vthresh))&v(b)>((vthresh)),((vdd)),((vss)))"
Questionable use of curly braces in "b§e_abmgate yint 0 v={if(v(a)>{{vthresh}}|v(b)>{{vthresh}}|v(c)>{{vthresh}},{{vdd}},{{vss}})}"
    Error: undefined symbol in: "if([v](a)>((vthresh))|v(b)>((vthresh))|v(c)>((vthresh)),((vdd)),((vss)))"
Questionable use of curly braces in "b§e_abmgate yint 0 v={if(v(a)>{{vthresh}},{{vdd}},{{vss}})}"
    Error: undefined symbol in: "if([v](a)>((vthresh)),((vdd)),((vss)))"
WARNING: Less than two connections to node NC_01.  This node is used by R1.
Direct Newton iteration for .op point succeeded.
Ignoring empty pin current: Ix(u1:fb)
Ignoring empty pin current: Ix(u1:fb)
Heightened Def Con from 0.011498 to 0.011498

Date: Wed Aug 05 19:21:52 2020
Total elapsed time: 21.694 seconds.

tnom = 27
temp = 27
method = modified trap
totiter = 1870068
traniter = 1870058
tranpoints = 659996
accept = 506887
rejected = 153110
matrix size = 110
fillins = 55
solver = Normal
Thread vector: 8.7/5.2[2] 1.7/2.5[1] 2.7/1.9[2] 0.3/1.5[1]  2592/500
Matrix Compiler1: 5.42 KB object code size  1.2/0.6/[0.4]
Matrix Compiler2: 7.77 KB object code size  0.5/1.0/[0.3]

