Circuit: * C:\Users\Adojang\Desktop\E344\LTSpice\vanWijk_21786275_A1.ASC

Early termination of direct N-R iteration.
Direct Newton iteration failed to find .op point.  (Use ".option noopiter" to skip.)
Starting Gmin stepping
Gmin = 10
Gmin = 1.07374
Gmin = 0.115292
Gmin = 0.0123794
Gmin = 0.00132923
vernier = 0.5
vernier = 0.25
vernier = 0.125
vernier = 0.0625
Gmin = 0.00100083
vernier = 0.03125
vernier = 0.015625
vernier = 0.0078125
vernier = 0.00390625
vernier = 0.00195313
Gmin = 0.00100083
vernier = 0.000976563
vernier = 0.000488281
Gmin = 0
Gmin stepping failed

Starting source stepping with srcstepmethod=0
Source Step = 3.0303%
vernier = 0.25
Source Step = 3.03622%
Source Step = 3.06581%
Source Step = 3.09541%
Source Step = 3.125%
Source Step = 3.15459%
Source Step = 3.18419%
vernier = 0.00146484
Source Step = 3.22562%
Source Step = 3.27%
Source Step = 3.31439%
Source Step = 3.35878%
Source Step = 3.40317%
vernier = 0.00219727
Source Step = 3.4631%
Source Step = 3.52968%
Source Step = 3.59627%
Source Step = 3.66285%
Source Step = 3.72943%
vernier = 0.0032959
Source Step = 3.81599%
Source Step = 3.91587%
Source Step = 4.01574%
Source Step = 4.11562%
Source Step = 4.21549%
vernier = 0.00494385
Source Step = 4.34034%
Source Step = 4.49015%
Source Step = 4.63997%
Source Step = 4.78978%
Source Step = 4.93959%
vernier = 0.00741577
Source Step = 5.11937%
Source Step = 5.34409%
Source Step = 5.56881%
Source Step = 5.79353%
Source Step = 6.01825%
vernier = 0.0111237
Source Step = 6.27668%
Source Step = 6.61376%
Source Step = 6.95084%
Source Step = 7.28792%
Source Step = 7.625%
vernier = 0.0166855
Source Step = 7.99579%
Source Step = 8.50141%
Source Step = 9.00703%
Source Step = 9.51265%
Source Step = 10.0183%
vernier = 0.0250282
Source Step = 10.5492%
Source Step = 11.3076%
Source Step = 12.066%
Source Step = 12.8245%
Source Step = 13.5829%
Source Step = 14.3413%
vernier = 0.0375423
Source Step = 15.479%
Source Step = 16.6166%
Source Step = 17.7543%
Source Step = 18.8919%
Source Step = 20.0296%
vernier = 0.0563135
Source Step = 21.6792%
Source Step = 23.3856%
Source Step = 25.0921%
Source Step = 26.7986%
Source Step = 28.505%
vernier = 0.0844703
Source Step = 30.8941%
Source Step = 33.4538%
Source Step = 34.5417%
Source Step = 34.7017%
Source Step = 34.8616%
Source Step = 35.0216%
Source Step = 35.1816%
vernier = 0.00791909
Source Step = 35.3656%
Source Step = 35.6055%
Source Step = 35.8455%
Source Step = 36.0855%
Source Step = 36.3255%
vernier = 0.0118786
Source Step = 36.5894%
Source Step = 36.9494%
Source Step = 37.3094%
Source Step = 37.6693%
Source Step = 38.0293%
vernier = 0.0178179
Source Step = 38.4072%
Source Step = 38.9472%
Source Step = 39.4871%
Source Step = 40.027%
Source Step = 40.567%
Source Step = 41.1069%
vernier = 0.0267269
Source Step = 41.9168%
Source Step = 42.7267%
Source Step = 43.5366%
Source Step = 44.3465%
Source Step = 45.1564%
vernier = 0.0400904
Source Step = 46.3308%
Source Step = 47.5457%
Source Step = 48.7605%
Source Step = 49.9754%
Source Step = 51.1903%
vernier = 0.0601356
Source Step = 52.8911%
Source Step = 54.7133%
Source Step = 56.5356%
Source Step = 58.3579%
Source Step = 60.1802%
vernier = 0.0902034
Source Step = 62.6403%
Source Step = 65.3737%
Source Step = 68.1072%
Source Step = 70.8406%
Source Step = 73.5741%
vernier = 0.135305
Source Step = 77.1275%
Source Step = 81.2277%
Source Step = 82.0797%
Source Step = 82.1438%
Source Step = 82.2079%
Source Step = 82.2719%
Source Step = 82.336%
vernier = 0.00317121
Source Step = 82.4065%
Source Step = 82.5026%
Source Step = 82.5987%
Source Step = 82.6948%
Source Step = 82.7909%
vernier = 0.00475682
Source Step = 82.8918%
Source Step = 83.0359%
Source Step = 83.18%
Source Step = 83.3242%
Source Step = 83.4683%
Source Step = 83.6125%
vernier = 0.00713523
Source Step = 83.8287%
Source Step = 84.0449%
Source Step = 84.2611%
Source Step = 84.4774%
Source Step = 84.6936%
vernier = 0.0107028
Source Step = 85.0071%
Source Step = 85.3314%
Source Step = 85.6558%
Source Step = 85.9801%
Source Step = 86.3044%
vernier = 0.0160543
Source Step = 86.7585%
Source Step = 87.245%
Source Step = 87.7315%
Source Step = 88.218%
Source Step = 88.7044%
vernier = 0.0240814
Source Step = 89.3612%
Source Step = 90.0909%
Source Step = 90.4011%
Source Step = 90.4467%
Source Step = 90.4923%
Source Step = 90.5379%
Source Step = 90.5835%
Source Step = 90.6291%
Source Step = 90.6747%
Source Step = 90.7203%
Source Step = 90.766%
Source Step = 90.8116%
Source Step = 90.8572%
Source Step = 90.9028%
Source Step = 90.9484%
Source Step = 90.994%
Source Step = 91.0396%
Source Step = 91.0852%
Source Step = 91.1308%
Source Step = 91.1764%
Source Step = 91.222%
Source Step = 91.2677%
Source Step = 91.3133%
Starting source stepping with srcstepmethod=1
Source Step = 3.0303%
Source Step = 33.3333%
Source Step = 63.6364%
Source Step = 93.9394%
Source Step = 100%
vernier = 0.015625
Source Step = 99.9231%
Source Step = 99.9527%
Source Step = 99.9822%
Source Step = 100%
Source stepping failed

Pseudo transient terminated at 102.613 s, solution accepted ready or not!

Date: Sun Aug 16 09:21:25 2020
Total elapsed time: 25.025 seconds.

tnom = 27
temp = 27
method = modified trap
totiter = 48496
traniter = 12596
tranpoints = 5664
accept = 5484
rejected = 243
matrix size = 300
fillins = 723
solver = Normal
Thread vector: 20.8/10.2[7] 15.2/4.5[7] 27.0/9.5[7] 2.3/7.1[1]  2592/500
Matrix Compiler1: 73.05 KB object code size  25.3/13.4/[5.7]
Matrix Compiler2: 37.81 KB object code size  14.3/19.0/[3.1]

