Circuit: * C:\Users\Adojang\Desktop\E344\LTSpice\Assignment 3\E344_A3_temp.asc

V1: Removing PWL point (0.001,1.3)
Direct Newton iteration failed to find .op point.  (Use ".option noopiter" to skip.)
Starting Gmin stepping
Gmin = 10
Gmin = 1.07374
Gmin = 0.115292
Gmin = 0.0123794
Gmin = 0.00132923
vernier = 0.5
vernier = 0.25
vernier = 0.125
vernier = 0.0625
Gmin = 0.00100083
vernier = 0.03125
vernier = 0.015625
vernier = 0.0078125
vernier = 0.00390625
vernier = 0.00195313
Gmin = 0.00100083
vernier = 0.000976563
vernier = 0.000488281
Gmin = 0
Gmin stepping failed

Starting source stepping with srcstepmethod=0
Source Step = 3.0303%
vernier = 0.25
Source Step = 3.03622%
Source Step = 3.06581%
Source Step = 3.09541%
Source Step = 3.125%
Source Step = 3.15459%
Source Step = 3.18419%
vernier = 0.00146484
Source Step = 3.22562%
Source Step = 3.27%
Source Step = 3.31439%
Source Step = 3.35878%
Source Step = 3.40317%
vernier = 0.00219727
Source Step = 3.4631%
Source Step = 3.52968%
Source Step = 3.59627%
Source Step = 3.66285%
Source Step = 3.72943%
vernier = 0.0032959
Source Step = 3.81599%
Source Step = 3.91587%
Source Step = 4.01574%
Source Step = 4.11562%
Source Step = 4.21549%
vernier = 0.00494385
Source Step = 4.34034%
Source Step = 4.49015%
Source Step = 4.63997%
Source Step = 4.78978%
Source Step = 4.93959%
vernier = 0.00741577
Source Step = 5.11937%
Source Step = 5.34409%
Source Step = 5.56881%
Source Step = 5.79353%
Source Step = 6.01825%
vernier = 0.0111237
Source Step = 6.27668%
Source Step = 6.61376%
Source Step = 6.95084%
Source Step = 7.28792%
Source Step = 7.625%
vernier = 0.0166855
Source Step = 7.99579%
Source Step = 8.50141%
Source Step = 9.00703%
Source Step = 9.51265%
Source Step = 10.0183%
vernier = 0.0250282
Source Step = 10.5492%
Source Step = 11.3076%
Source Step = 12.066%
Source Step = 12.8245%
Source Step = 13.5829%
Source Step = 14.3413%
vernier = 0.0375423
Source Step = 15.479%
Source Step = 16.6166%
Source Step = 17.7543%
Source Step = 18.8919%
Source Step = 20.0296%
vernier = 0.0563135
Source Step = 21.6792%
Source Step = 23.3856%
Source Step = 25.0921%
Source Step = 26.7986%
Source Step = 28.505%
vernier = 0.0844703
Source Step = 30.8941%
Source Step = 33.4538%
Source Step = 34.2217%
Source Step = 34.5097%
Source Step = 34.6697%
Source Step = 34.8296%
Source Step = 34.9896%
Source Step = 35.1496%
vernier = 0.00791909
Source Step = 35.3496%
Source Step = 35.5896%
Source Step = 35.8295%
Source Step = 36.0695%
Source Step = 36.3095%
vernier = 0.0118786
Source Step = 36.5974%
Source Step = 36.9574%
Source Step = 37.3174%
Source Step = 37.6773%
Source Step = 38.0373%
vernier = 0.0178179
Source Step = 38.4512%
Source Step = 38.9912%
Source Step = 39.5311%
Source Step = 40.071%
Source Step = 40.611%
vernier = 0.0267269
Source Step = 41.2049%
Source Step = 42.0148%
Source Step = 42.8247%
Source Step = 43.6346%
Source Step = 44.4445%
vernier = 0.0400904
Source Step = 45.2949%
Source Step = 46.5098%
Source Step = 47.7247%
Source Step = 48.9395%
Source Step = 50.1544%
Source Step = 51.3692%
vernier = 0.0601356
Source Step = 53.1915%
Source Step = 55.0138%
Source Step = 56.8361%
Source Step = 58.6584%
Source Step = 60.4807%
vernier = 0.0902034
Source Step = 63.123%
Source Step = 65.8564%
Source Step = 68.5899%
Source Step = 71.3233%
Source Step = 74.0567%
vernier = 0.135305
Source Step = 77.8836%
Source Step = 81.9837%
Source Step = 82.9703%
Source Step = 83.0344%
Source Step = 83.0984%
Source Step = 83.1625%
Source Step = 83.2266%
Source Step = 83.2906%
vernier = 0.00317121
Source Step = 83.3803%
Source Step = 83.4764%
Source Step = 83.5725%
Source Step = 83.6686%
Source Step = 83.7647%
vernier = 0.00475682
Source Step = 83.8944%
Source Step = 84.0386%
Source Step = 84.1827%
Source Step = 84.3269%
Source Step = 84.471%
vernier = 0.00713523
Source Step = 84.6584%
Source Step = 84.8746%
Source Step = 85.0909%
Source Step = 85.3071%
Source Step = 85.5233%
vernier = 0.0107028
Source Step = 85.7936%
Source Step = 86.1179%
Source Step = 86.4422%
Source Step = 86.7666%
Source Step = 87.0909%
vernier = 0.0160543
Source Step = 87.4801%
Source Step = 87.9666%
Source Step = 88.4531%
Source Step = 88.9396%
Source Step = 89.426%
vernier = 0.0240814
Source Step = 89.9855%
Source Step = 90.5875%
Source Step = 90.6423%
Source Step = 90.6879%
Source Step = 90.7335%
Source Step = 90.7791%
Source Step = 90.8247%
Source Step = 90.8703%
Source Step = 90.9159%
Source Step = 90.9615%
Source Step = 91.0071%
Source Step = 91.0528%
Source Step = 91.0984%
Source Step = 91.144%
Source Step = 91.1896%
Source Step = 91.2352%
Source Step = 91.2808%
Source Step = 91.3264%
Source Step = 91.372%
Source Step = 91.4176%
Source Step = 91.4632%
Source Step = 91.5088%
Source Step = 91.5545%
Source Step = 91.6001%
Source Step = 91.6457%
Source Step = 91.6913%
Source Step = 91.7369%
Source Step = 91.7825%
Source Step = 91.8281%
Source Step = 91.8737%
Source Step = 91.9193%
Source Step = 91.9649%
Source Step = 92.0105%
Source Step = 92.0561%
Source Step = 92.1018%
Source Step = 92.1474%
Source Step = 92.193%
Source Step = 92.2386%
Source Step = 92.2842%
Source Step = 92.3298%
Source Step = 92.3754%
Source Step = 92.421%
Source Step = 92.4666%
Source Step = 92.5122%
Source Step = 92.5578%
Source Step = 92.6035%
Source Step = 92.6491%
Source Step = 92.6947%
Source Step = 92.7403%
Source Step = 92.7859%
Source Step = 92.8315%
Source Step = 92.8771%
Starting source stepping with srcstepmethod=1
Source Step = 3.0303%
Source Step = 33.3333%
Source Step = 63.6364%
Source Step = 93.9394%
Source Step = 100%
Source Step = 99.3906%
Source stepping failed

Pseudo transient terminated at 102.495 s, solution accepted ready or not!

Date: Sun Oct 04 08:50:41 2020
Total elapsed time: 32.752 seconds.

tnom = 27
temp = 27
method = modified trap
totiter = 56756
traniter = 4040
tranpoints = 2021
accept = 2021
rejected = 66
matrix size = 295
fillins = 784
solver = Normal
Thread vector: 21.3/11.7[7] 8.5/4.0[7] 13.7/4.9[7] 1.4/5.1[1]  2592/500
Matrix Compiler1: 86.01 KB object code size  26.1/14.0/[7.2]
Matrix Compiler2: 38.53 KB object code size  8.5/9.7/[4.2]

