Circuit: * C:\Users\Adojang\Desktop\E344\LTSpice\Assignment 3\E344_A3_temp.asc

V1: Removing PWL point (0.001,1.24)
Direct Newton iteration failed to find .op point.  (Use ".option noopiter" to skip.)
Starting Gmin stepping
Gmin = 10
Gmin = 1.07374
Gmin = 0.115292
Gmin = 0.0123794
Gmin = 0.00132923
vernier = 0.5
vernier = 0.25
vernier = 0.125
vernier = 0.0625
Gmin = 0.00100083
vernier = 0.03125
vernier = 0.015625
vernier = 0.0078125
vernier = 0.00390625
vernier = 0.00195313
Gmin = 0.00100083
vernier = 0.000976563
vernier = 0.000488281
Gmin = 0
Gmin stepping failed

Starting source stepping with srcstepmethod=0
Source Step = 3.0303%
vernier = 0.25
Source Step = 3.06581%
Source Step = 3.18419%
Source Step = 3.30256%
Source Step = 3.42093%
Source Step = 3.5393%
vernier = 0.00585938
Source Step = 3.66951%
Source Step = 3.84706%
Source Step = 4.02462%
Source Step = 4.20218%
Source Step = 4.37973%
vernier = 0.00878906
Source Step = 4.56617%
Source Step = 4.8325%
Source Step = 5.09884%
Source Step = 5.36518%
Source Step = 5.63151%
Source Step = 5.89785%
vernier = 0.0131836
Source Step = 6.29735%
Source Step = 6.69685%
Source Step = 7.09635%
Source Step = 7.49586%
Source Step = 7.89536%
vernier = 0.0197754
Source Step = 8.47464%
Source Step = 9.07389%
Source Step = 9.67315%
Source Step = 10.2724%
Source Step = 10.8717%
vernier = 0.0296631
Source Step = 11.7106%
Source Step = 12.6095%
Source Step = 13.5084%
Source Step = 14.4073%
Source Step = 15.3061%
vernier = 0.0444946
Source Step = 16.5196%
Source Step = 17.8679%
Source Step = 19.2163%
Source Step = 20.5646%
Source Step = 21.9129%
vernier = 0.0667419
Source Step = 23.6657%
Source Step = 25.6882%
Source Step = 27.7107%
Source Step = 29.7332%
Source Step = 31.7557%
vernier = 0.100113
Source Step = 34.2838%
Source Step = 37.3175%
Source Step = 40.3512%
Source Step = 43.3849%
Source Step = 43.7168%
Source Step = 43.7642%
Source Step = 43.8116%
Source Step = 43.859%
Source Step = 43.9064%
Source Step = 43.9538%
vernier = 0.0023464
Source Step = 44.0249%
Source Step = 44.096%
Source Step = 44.1671%
Source Step = 44.2382%
Source Step = 44.3093%
vernier = 0.00351959
Source Step = 44.4124%
Source Step = 44.519%
Source Step = 44.6257%
Source Step = 44.7323%
Source Step = 44.839%
vernier = 0.00527939
Source Step = 44.9883%
Source Step = 45.1483%
Source Step = 45.3083%
Source Step = 45.4683%
Source Step = 45.6282%
vernier = 0.00791909
Source Step = 45.8442%
Source Step = 46.0842%
Source Step = 46.3242%
Source Step = 46.5641%
Source Step = 46.8041%
vernier = 0.0118786
Source Step = 47.1161%
Source Step = 47.476%
Source Step = 47.836%
Source Step = 48.1959%
Source Step = 48.5559%
vernier = 0.0178179
Source Step = 49.0059%
Source Step = 49.5458%
Source Step = 50.0857%
Source Step = 50.6257%
Source Step = 51.1656%
vernier = 0.0267269
Source Step = 51.8135%
Source Step = 52.6234%
Source Step = 53.4333%
Source Step = 54.2433%
Source Step = 55.0532%
vernier = 0.0400904
Source Step = 55.9845%
Source Step = 57.1994%
Source Step = 58.4143%
Source Step = 59.6291%
Source Step = 60.844%
vernier = 0.0601356
Source Step = 62.1803%
Source Step = 64.0026%
Source Step = 65.8249%
Source Step = 67.6472%
Source Step = 69.4695%
vernier = 0.0902034
Source Step = 71.3829%
Source Step = 74.1163%
Source Step = 76.8498%
Source Step = 79.5832%
Source Step = 82.3166%
Source Step = 85.0501%
vernier = 0.135305
Source Step = 89.1502%
Source Step = 92.5329%
vernier = 0.00845657
Source Step = 92.488%
Source Step = 92.5521%
Starting source stepping with srcstepmethod=1
Source Step = 3.0303%
Source Step = 33.3333%
Source Step = 63.6364%
Source Step = 93.9394%
Source Step = 100%
vernier = 0.015625
Source Step = 99.8787%
Source Step = 99.9083%
Source Step = 99.9379%
Source Step = 99.9674%
Source Step = 99.997%
Source stepping failed

Pseudo transient terminated at 100.524 s, solution accepted ready or not!

Date: Mon Oct 12 07:55:20 2020
Total elapsed time: 15.961 seconds.

tnom = 27
temp = 27
method = modified trap
totiter = 27606
traniter = 4048
tranpoints = 2025
accept = 2025
rejected = 48
matrix size = 295
fillins = 819
solver = Normal
Thread vector: 26.7/12.2[7] 10.1/4.5[7] 13.1/4.9[7] 1.8/3.9[1]  2592/500
Matrix Compiler1: 89.43 KB object code size  27.3/14.7/[7.6]
Matrix Compiler2: 39.12 KB object code size  7.7/8.9/[4.2]

