Circuit: * C:\Users\Adojang\Desktop\E344\LTSpice\Assignment 3\E344_A3_temp.asc

V1: Removing PWL point (0.001,1.15)
Direct Newton iteration failed to find .op point.  (Use ".option noopiter" to skip.)
Starting Gmin stepping
Gmin = 10
Gmin = 1.07374
Gmin = 0.115292
Gmin = 0.0123794
Gmin = 0.00132923
vernier = 0.5
vernier = 0.25
vernier = 0.125
vernier = 0.0625
Gmin = 0.00100083
vernier = 0.03125
vernier = 0.015625
vernier = 0.0078125
vernier = 0.00390625
vernier = 0.00195313
Gmin = 0.00100083
vernier = 0.000976563
vernier = 0.000488281
Gmin = 0
Gmin stepping failed

Starting source stepping with srcstepmethod=0
Source Step = 3.0303%
vernier = 0.25
Source Step = 3.03622%
Source Step = 3.06581%
Source Step = 3.09541%
Source Step = 3.125%
Source Step = 3.15459%
Source Step = 3.18419%
vernier = 0.00146484
Source Step = 3.22562%
Source Step = 3.27%
Source Step = 3.31439%
Source Step = 3.35878%
Source Step = 3.40317%
vernier = 0.00219727
Source Step = 3.4631%
Source Step = 3.52968%
Source Step = 3.59627%
Source Step = 3.66285%
Source Step = 3.72943%
vernier = 0.0032959
Source Step = 3.81599%
Source Step = 3.91587%
Source Step = 4.01574%
Source Step = 4.11562%
Source Step = 4.21549%
vernier = 0.00494385
Source Step = 4.34034%
Source Step = 4.49015%
Source Step = 4.63997%
Source Step = 4.78978%
Source Step = 4.93959%
vernier = 0.00741577
Source Step = 5.11937%
Source Step = 5.34409%
Source Step = 5.56881%
Source Step = 5.79353%
Source Step = 6.01825%
vernier = 0.0111237
Source Step = 6.27668%
Source Step = 6.61376%
Source Step = 6.95084%
Source Step = 7.28792%
Source Step = 7.625%
vernier = 0.0166855
Source Step = 7.99579%
Source Step = 8.50141%
Source Step = 9.00703%
Source Step = 9.51265%
Source Step = 10.0183%
vernier = 0.0250282
Source Step = 10.5492%
Source Step = 11.3076%
Source Step = 12.066%
Source Step = 12.8245%
Source Step = 13.5829%
Source Step = 14.3413%
vernier = 0.0375423
Source Step = 15.479%
Source Step = 16.6166%
Source Step = 17.7543%
Source Step = 18.8919%
Source Step = 20.0296%
vernier = 0.0563135
Source Step = 21.6792%
Source Step = 23.3856%
Source Step = 25.0921%
Source Step = 26.7986%
Source Step = 28.505%
vernier = 0.0844703
Source Step = 30.8941%
Source Step = 33.4538%
Source Step = 34.2217%
Source Step = 34.8616%
Source Step = 35.5016%
Source Step = 36.1415%
Source Step = 36.7814%
vernier = 0.0316764
Source Step = 37.6453%
Source Step = 38.6052%
Source Step = 39.5651%
Source Step = 40.525%
Source Step = 41.4849%
vernier = 0.0475145
Source Step = 42.7327%
Source Step = 44.1726%
Source Step = 45.6124%
Source Step = 47.0522%
Source Step = 48.4921%
vernier = 0.0712718
Source Step = 50.2919%
Source Step = 52.4516%
Source Step = 54.6114%
Source Step = 56.7711%
Source Step = 58.9309%
vernier = 0.106908
Source Step = 61.5226%
Source Step = 64.7622%
Source Step = 68.0018%
Source Step = 71.2414%
Source Step = 74.4811%
vernier = 0.160362
Source Step = 78.2066%
Source Step = 83.0661%
vernier = 0.0400904
Source Step = 82.9826%
Source Step = 83.0585%
Source Step = 83.1344%
Source Step = 83.2103%
Source Step = 83.2863%
vernier = 0.00375847
Source Step = 83.3774%
Source Step = 83.4913%
Source Step = 83.6052%
Source Step = 83.7191%
Source Step = 83.833%
vernier = 0.00563771
Source Step = 83.9639%
Source Step = 84.1348%
Source Step = 84.3056%
Source Step = 84.4765%
Source Step = 84.6473%
vernier = 0.00845657
Source Step = 84.8352%
Source Step = 85.0915%
Source Step = 85.3477%
Source Step = 85.604%
Source Step = 85.8603%
vernier = 0.0126848
Source Step = 86.1293%
Source Step = 86.5137%
Source Step = 86.8981%
Source Step = 87.2825%
Source Step = 87.6669%
Source Step = 88.0513%
vernier = 0.0190273
Source Step = 88.6279%
Source Step = 89.2044%
Source Step = 89.781%
Source Step = 90.0585%
Source Step = 90.0946%
Source Step = 90.1306%
Source Step = 90.1666%
Source Step = 90.2027%
Source Step = 90.2387%
Source Step = 90.2747%
Source Step = 90.3108%
Source Step = 90.3468%
Source Step = 90.3828%
Source Step = 90.4189%
Source Step = 90.4549%
Source Step = 90.491%
Source Step = 90.527%
Source Step = 90.563%
Source Step = 90.5991%
Source Step = 90.6351%
Source Step = 90.6711%
Source Step = 90.7072%
Source Step = 90.7432%
Source Step = 90.7792%
Source Step = 90.8153%
Source Step = 90.8513%
Source Step = 90.8874%
Source Step = 90.9234%
Source Step = 90.9594%
Source Step = 90.9955%
Source Step = 91.0315%
Source Step = 91.0675%
Source Step = 91.1036%
Source Step = 91.1396%
Source Step = 91.1756%
Source Step = 91.2117%
Source Step = 91.2477%
Source Step = 91.2838%
Source Step = 91.3198%
Source Step = 91.3558%
Source Step = 91.3919%
Source Step = 91.4279%
Source Step = 91.4639%
Source Step = 91.5%
Source Step = 91.536%
Starting source stepping with srcstepmethod=1
Source Step = 3.0303%
Source Step = 33.3333%
Source Step = 63.6364%
Source Step = 93.9394%
Source Step = 100%
vernier = 0.0625
Source Step = 99.3936%
Source stepping failed

Pseudo transient terminated at 101.84 s, solution accepted ready or not!

Date: Fri Oct 02 16:58:04 2020
Total elapsed time: 31.606 seconds.

tnom = 27
temp = 27
method = modified trap
totiter = 48706
traniter = 4040
tranpoints = 2021
accept = 2021
rejected = 71
matrix size = 295
fillins = 788
solver = Normal
Thread vector: 23.0/12.6[7] 11.2/4.3[7] 13.3/8.3[7] 2.5/3.9[1]  2592/500
Matrix Compiler1: 86.15 KB object code size  26.8/13.9/[6.3]
Matrix Compiler2: 38.60 KB object code size  8.3/9.5/[3.1]

