Circuit: * C:\Users\Adojang\Desktop\E344\LTSpice\Assignment 3\E344_A3_heart.asc

A1: all pins shorted together -- ignoring.
Early termination of direct N-R iteration.
Direct Newton iteration failed to find .op point.  (Use ".option noopiter" to skip.)
Starting Gmin stepping
Gmin = 10
vernier = 0.5
vernier = 0.25
vernier = 0.125
Gmin = 5.5165
vernier = 0.0625
vernier = 0.03125
vernier = 0.015625
vernier = 0.0078125
Gmin = 5.49501
vernier = 0.00390625
vernier = 0.00195313
vernier = 0.000976563
vernier = 0.000488281
Gmin = 5.50104
Gmin = 0
Gmin stepping failed

Starting source stepping with srcstepmethod=0
Source Step = 3.0303%
Source Step = 33.3333%
Source Step = 63.6364%
Source Step = 93.9394%
Source stepping succeeded in finding the operating point.

Heightened Def Con from 3.36169 to 3.36169
Heightened Def Con from 4.30705 to 4.30705

Date: Sun Oct 04 08:47:30 2020
Total elapsed time: 2.350 seconds.

tnom = 27
temp = 27
method = modified trap
totiter = 68949
traniter = 66948
tranpoints = 29901
accept = 28941
rejected = 962
matrix size = 91
fillins = 506
solver = Normal
Thread vector: 13.8/9.6[2] 4.9/3.8[2] 4.2/3.6[2] 0.6/1.6[1]  2592/500
Matrix Compiler1: 54.68 KB object code size  11.0/5.5/[2.1]
Matrix Compiler2: 16.75 KB object code size  2.9/2.3/[0.7]

