Circuit: * C:\Users\Adojang\Desktop\E344\LTSpice\Assignment 3\E344_A3_temp.asc

V1: Removing PWL point (0.001,1.32)
WARNING: Less than two connections to node VTEMPSENSOR.  This node is used by V1.
WARNING: Less than two connections to node N010.  This node is used by R8.
Direct Newton iteration failed to find .op point.  (Use ".option noopiter" to skip.)
Starting Gmin stepping
Gmin = 10
vernier = 0.5
vernier = 0.25
vernier = 0.125
Gmin = 5.5165
vernier = 0.0625
vernier = 0.03125
vernier = 0.015625
vernier = 0.0078125
Gmin = 5.49501
vernier = 0.00390625
vernier = 0.00195313
vernier = 0.000976563
vernier = 0.000488281
Gmin = 5.50104
Gmin = 0
Gmin stepping failed

Starting source stepping with srcstepmethod=0
Source Step = 3.0303%
vernier = 0.25
Source Step = 0.378788%
Source Step = 0.852273%
Source Step = 1.32576%
Source Step = 1.79924%
Source Step = 2.27273%
vernier = 0.0234375
Source Step = 2.91193%
Source Step = 3.62216%
Source Step = 4.33239%
Source Step = 5.04261%
Source Step = 5.75284%
vernier = 0.0351563
Source Step = 6.67614%
Source Step = 7.74148%
Source Step = 8.80682%
Source Step = 9.87216%
Source Step = 10.9375%
vernier = 0.0527344
Source Step = 12.2692%
Source Step = 13.8672%
Source Step = 15.4652%
Source Step = 17.0632%
Source Step = 18.6612%
vernier = 0.0791016
Source Step = 20.5788%
Source Step = 22.9759%
Source Step = 25.3729%
Source Step = 27.7699%
Source Step = 30.1669%
vernier = 0.118652
Source Step = 32.9235%
Source Step = 36.519%
Source Step = 40.1145%
Source Step = 43.71%
Source Step = 43.7494%
Source Step = 43.8056%
Source Step = 43.8617%
Source Step = 43.9179%
Source Step = 43.9741%
vernier = 0.00278091
Source Step = 44.0331%
Source Step = 44.1174%
Source Step = 44.2016%
Source Step = 44.2859%
Source Step = 44.3702%
Source Step = 44.4544%
vernier = 0.00417137
Source Step = 44.5808%
Source Step = 44.7072%
Source Step = 44.8337%
Source Step = 44.9601%
Source Step = 45.0865%
vernier = 0.00625706
Source Step = 45.2697%
Source Step = 45.4594%
Source Step = 45.649%
Source Step = 45.8386%
Source Step = 46.0282%
vernier = 0.00938559
Source Step = 46.2936%
Source Step = 46.578%
Source Step = 46.8625%
Source Step = 47.1469%
Source Step = 47.4313%
vernier = 0.0140784
Source Step = 47.8152%
Source Step = 48.2419%
Source Step = 48.6685%
Source Step = 49.0951%
Source Step = 49.5217%
vernier = 0.0211176
Source Step = 50.0763%
Source Step = 50.7162%
Source Step = 51.3562%
Source Step = 51.9961%
Source Step = 52.636%
vernier = 0.0316764
Source Step = 53.4359%
Source Step = 54.3958%
Source Step = 55.3557%
Source Step = 56.3156%
Source Step = 57.2755%
vernier = 0.0475145
Source Step = 58.4273%
Source Step = 59.8672%
Source Step = 61.307%
Source Step = 62.7468%
Source Step = 64.1867%
vernier = 0.0712718
Source Step = 65.8425%
Source Step = 68.0022%
Source Step = 70.162%
Source Step = 72.3217%
Source Step = 74.4815%
vernier = 0.106908
Source Step = 76.8572%
Source Step = 80.0968%
Source Step = 83.3365%
Source Step = 86.5761%
Source Step = 89.8157%
Source Step = 90.8079%
Source Step = 90.8585%
Source Step = 90.9091%
Source Step = 90.9597%
Source Step = 91.0103%
Source Step = 91.061%
Source Step = 91.1116%
Source Step = 91.1622%
Source Step = 91.2128%
Source Step = 91.2634%
Source Step = 91.3141%
Source Step = 91.3647%
Source Step = 91.4153%
Source Step = 91.4659%
Source Step = 91.5165%
Source Step = 91.5672%
Source Step = 91.6178%
Source Step = 91.6684%
Source Step = 91.719%
Source Step = 91.7696%
Source Step = 91.8202%
Source Step = 91.8709%
Source Step = 91.9215%
Source Step = 91.9721%
Source Step = 92.0227%
Source Step = 92.0733%
Source Step = 92.124%
Source Step = 92.1746%
Source Step = 92.2252%
Source Step = 92.2758%
Source Step = 92.3264%
Source Step = 92.3771%
Source Step = 92.4277%
Source Step = 92.4783%
Source Step = 92.5289%
Source Step = 92.5795%
Source Step = 92.6302%
Source Step = 92.6808%
Source Step = 92.7314%
Source Step = 92.782%
Source Step = 92.8326%
Source Step = 92.8833%
Source Step = 92.9339%
Starting source stepping with srcstepmethod=1
Source Step = 3.0303%
vernier = 0.25
Source Step = 0.722064%
Source stepping failed

Pseudo Transient failed in finding the operating point at 5.067 µs.
Trouble finding operating point....skipping operating point for Transient analysis.

Date: Fri Oct 02 14:55:15 2020
Total elapsed time: 67.899 seconds.

tnom = 27
temp = 27
method = modified trap
totiter = 485626
traniter = 0
tranpoints = 1
accept = 1
rejected = 14394
matrix size = 451
fillins = 1127
solver = Normal
Thread vector: 63.4/16.3[8] 14.7/6.4[8] 22.0/7.7[8] 4.0/5.6[1]  2592/500
Matrix Compiler1: 104.97 KB object code size  37.9/19.8/[8.7]
Matrix Compiler2: 57.70 KB object code size  23.2/15.9/[6.5]

