Circuit: * C:\Users\Adojang\Desktop\E344\LTSpice\Assignment 3\E344_A3_heart.asc

A1: all pins shorted together -- ignoring.
Early termination of direct N-R iteration.
Direct Newton iteration failed to find .op point.  (Use ".option noopiter" to skip.)
Starting Gmin stepping
Gmin = 10
vernier = 0.5
vernier = 0.25
vernier = 0.125
Gmin = 5.5165
vernier = 0.0625
vernier = 0.03125
vernier = 0.015625
vernier = 0.0078125
Gmin = 5.49501
vernier = 0.00390625
vernier = 0.00195313
vernier = 0.000976563
vernier = 0.000488281
Gmin = 5.50104
Gmin = 0
Gmin stepping failed

Starting source stepping with srcstepmethod=0
Source Step = 3.0303%
Source Step = 33.3333%
Source Step = 46.9697%
Source Step = 54.5455%
Source Step = 62.1212%
Source Step = 69.697%
Source Step = 77.2727%
vernier = 0.375
Source Step = 86.7424%
Source Step = 98.1061%
Source stepping succeeded in finding the operating point.

Heightened Def Con from 2.0339 to 2.0339
Heightened Def Con from 2.03417 to 2.03417
Heightened Def Con from 3.72733 to 3.72733
Heightened Def Con from 3.72785 to 3.72785

Date: Fri Oct 02 15:58:09 2020
Total elapsed time: 1.720 seconds.

tnom = 27
temp = 27
method = modified trap
totiter = 32302
traniter = 30070
tranpoints = 13689
accept = 13431
rejected = 262
matrix size = 91
fillins = 531
solver = Normal
Thread vector: 14.5/8.3[2] 4.8/3.6[2] 6.0/4.0[2] 0.6/2.3[1]  2592/500
Matrix Compiler1: 61.70 KB object code size  9.6/5.4/[2.2]
Matrix Compiler2: 17.09 KB object code size  2.4/3.1/[0.7]

