Circuit: * C:\Users\Adojang\Desktop\E344\LTSpice\Asssignment 2\cakex.asc

Early termination of direct N-R iteration.
Direct Newton iteration failed to find .op point.  (Use ".option noopiter" to skip.)
Starting Gmin stepping
Gmin = 10
vernier = 0.5
vernier = 0.25
vernier = 0.125
Gmin = 5.5165
vernier = 0.0625
vernier = 0.03125
vernier = 0.015625
vernier = 0.0078125
Gmin = 5.49501
vernier = 0.00390625
vernier = 0.00195313
vernier = 0.000976563
vernier = 0.000488281
Gmin = 5.50104
Gmin = 0
Gmin stepping failed

Starting source stepping with srcstepmethod=0
Source Step = 3.0303%
Source Step = 33.3333%
Source Step = 63.6364%
Source Step = 73.6742%
Source Step = 75.5682%
Source Step = 77.4621%
Source Step = 79.3561%
Source Step = 81.25%
vernier = 0.09375
Source Step = 83.5227%
Source Step = 86.3636%
Source Step = 89.2045%
Source Step = 92.0455%
Source Step = 94.8864%
vernier = 0.140625
Source Step = 98.1534%
Source stepping succeeded in finding the operating point.


Date: Fri Sep 25 11:04:55 2020
Total elapsed time: 0.578 seconds.

tnom = 27
temp = 27
method = trap
totiter = 2597
traniter = 0
tranpoints = 0
accept = 0
rejected = 0
matrix size = 111
fillins = 1160
solver = Normal
Matrix Compiler1:    8907 opcodes
Matrix Compiler2: 29.70 KB object code size  3.5/3.8/[1.4]

