Circuit: * C:\Users\Adojang\Desktop\E344\LTSpice\Asssignment 2\cakez.asc

Early termination of direct N-R iteration.
Direct Newton iteration failed to find .op point.  (Use ".option noopiter" to skip.)
Starting Gmin stepping
Gmin = 10
vernier = 0.5
vernier = 0.25
vernier = 0.125
Gmin = 6.68666
vernier = 0.0625
vernier = 0.03125
vernier = 0.015625
vernier = 0.0078125
Gmin = 6.72377
vernier = 0.00390625
vernier = 0.00195313
vernier = 0.000976563
vernier = 0.000488281
Gmin = 6.72131
Gmin = 0
Gmin stepping failed

Starting source stepping with srcstepmethod=0
Source Step = 3.0303%
Source Step = 33.3333%
Source Step = 63.6364%
Source Step = 93.9394%
Source stepping succeeded in finding the operating point.


Date: Fri Sep 25 10:51:40 2020
Total elapsed time: 0.239 seconds.

tnom = 27
temp = 27
method = trap
totiter = 1814
traniter = 0
tranpoints = 0
accept = 0
rejected = 0
matrix size = 87
fillins = 444
solver = Normal
Matrix Compiler1:    2610 opcodes
Matrix Compiler2: 15.16 KB object code size  1.1/1.4/[0.7]

