Circuit: * C:\Users\Adojang\Desktop\E344\LTSpice\Asssignment 2\Draft1.asc

Fatal Error: Unknown subcircuit called in:
   xu1 n006 n001 n003 0 n002 tlc2272
