Circuit: * C:\Users\Adojang\Desktop\E344\LTSpice\Asssignment 2\E344_Ass2_template.asc

Early termination of direct N-R iteration.
Direct Newton iteration failed to find .op point.  (Use ".option noopiter" to skip.)
Starting Gmin stepping
Gmin = 10
vernier = 0.5
vernier = 0.25
vernier = 0.125
Gmin = 5.5165
vernier = 0.0625
vernier = 0.03125
vernier = 0.015625
vernier = 0.0078125
Gmin = 5.49501
vernier = 0.00390625
vernier = 0.00195313
vernier = 0.000976563
vernier = 0.000488281
Gmin = 5.50104
Gmin = 0
Gmin stepping failed

Starting source stepping with srcstepmethod=0
Source Step = 3.0303%
Source Step = 33.3333%
Source Step = 46.9697%
Source Step = 54.5455%
Source Step = 62.1212%
Source Step = 69.697%
Source Step = 77.2727%
vernier = 0.375
Source Step = 86.7424%
Source Step = 98.1061%
Source stepping succeeded in finding the operating point.

Heightened Def Con from 0.8855 to 0.8855
Heightened Def Con from 0.885974 to 0.885974
Heightened Def Con from 0.886007 to 0.886007
Heightened Def Con from 1.28505 to 1.28505
Heightened Def Con from 2.08108 to 2.08108
Heightened Def Con from 2.4801 to 2.4801
Heightened Def Con from 4.4801 to 4.4801
Heightened Def Con from 4.88378 to 4.88378
Heightened Def Con from 4.88386 to 4.88386
Heightened Def Con from 5.6841 to 5.6841
Heightened Def Con from 5.87922 to 5.87922
Heightened Def Con from 6.8775 to 6.8775
Heightened Def Con from 7.27907 to 7.27907
Heightened Def Con from 8.47783 to 8.47783
Heightened Def Con from 9.28207 to 9.28207
Heightened Def Con from 10.0785 to 10.0785
Heightened Def Con from 10.4785 to 10.4785
Heightened Def Con from 11.2764 to 11.2764
Heightened Def Con from 11.6778 to 11.6778
Heightened Def Con from 12.0728 to 12.0728
Heightened Def Con from 12.4794 to 12.4794
Heightened Def Con from 13.2785 to 13.2785
Heightened Def Con from 16.8855 to 16.8855
Heightened Def Con from 17.0542 to 17.0542
Heightened Def Con from 17.6807 to 17.6807
Heightened Def Con from 17.6807 to 17.6807
Heightened Def Con from 18.4785 to 18.4785
Heightened Def Con from 18.8745 to 18.8745
Heightened Def Con from 18.8745 to 18.8745
Heightened Def Con from 19.2781 to 19.2781
Heightened Def Con from 19.6745 to 19.6745
Heightened Def Con from 19.6748 to 19.6748
Heightened Def Con from 20.0767 to 20.0767
Heightened Def Con from 20.4801 to 20.4801
Heightened Def Con from 21.2815 to 21.2815
Heightened Def Con from 21.2818 to 21.2818
Heightened Def Con from 21.6815 to 21.6815
Heightened Def Con from 21.6818 to 21.6818
Heightened Def Con from 22.0821 to 22.0821
Heightened Def Con from 22.8735 to 22.8735
Heightened Def Con from 23.2769 to 23.2769
Heightened Def Con from 23.2769 to 23.2769
Heightened Def Con from 23.6755 to 23.6755
Heightened Def Con from 24.8793 to 24.8793
Heightened Def Con from 25.6828 to 25.6828
Heightened Def Con from 26.0809 to 26.0809
Heightened Def Con from 26.8773 to 26.8773
Heightened Def Con from 28.0741 to 28.0741
Heightened Def Con from 28.4811 to 28.4811
Heightened Def Con from 28.8849 to 28.8849
Heightened Def Con from 28.885 to 28.885

Date: Fri Sep 11 11:54:42 2020
Total elapsed time: 6.183 seconds.

tnom = 27
temp = 27
method = modified trap
totiter = 197726
traniter = 195480
tranpoints = 73740
accept = 67445
rejected = 6346
matrix size = 95
fillins = 635
solver = Normal
Thread vector: 13.3/8.2[2] 4.2/3.6[2] 9.4/4.4[2] 0.6/2.3[1]  2592/500
Matrix Compiler1: 84.88 KB object code size  12.9/6.9/[3.0]
Matrix Compiler2: 19.07 KB object code size  2.2/2.5/[0.8]

