Circuit: * C:\Users\Adojang\Desktop\E344\LTSpice\Asssignment 2\E344_Ass2_template.asc

WARNING: Less than two connections to node NC_01.  This node is used by R1.
WARNING: Less than two connections to node N001.  This node is used by R2.
WARNING: Less than two connections to node N002.  This node is used by R4.
Early termination of direct N-R iteration.
Direct Newton iteration failed to find .op point.  (Use ".option noopiter" to skip.)
Starting Gmin stepping
Gmin = 10
vernier = 0.5
vernier = 0.25
vernier = 0.125
Gmin = 6.68666
vernier = 0.0625
vernier = 0.03125
vernier = 0.015625
vernier = 0.0078125
Gmin = 6.72377
vernier = 0.00390625
vernier = 0.00195313
vernier = 0.000976563
vernier = 0.000488281
Gmin = 6.72131
Gmin = 0
Gmin stepping failed

Starting source stepping with srcstepmethod=0
Source Step = 3.0303%
Source Step = 33.3333%
Source Step = 46.9697%
Source Step = 54.5455%
Source Step = 62.1212%
Source Step = 69.697%
Source Step = 77.2727%
vernier = 0.375
Source Step = 86.7424%
Source Step = 98.1061%
Source stepping succeeded in finding the operating point.


Date: Fri Aug 28 18:03:17 2020
Total elapsed time: 5.002 seconds.

tnom = 27
temp = 27
method = modified trap
totiter = 126884
traniter = 124789
tranpoints = 56500
accept = 55277
rejected = 1223
matrix size = 114
fillins = 862
solver = Normal
Thread vector: 10.6/7.9[2] 12.9/9.6[2] 6.2/4.5[2] 0.9/1.8[1]  2592/500
Matrix Compiler1: 121.17 KB object code size  30.9/26.5/[7.7]
Matrix Compiler2: 24.46 KB object code size  3.1/2.9/[1.1]

